# CIF file created by ISOCIF, version 3.1.3               
# Space Group: 139 I4/mmm     D4h-17
# Lattice parameters: a= 3.78609, b= 3.78609, c= 19.36684, alpha= 90.00000, beta= 90.00000, gamma= 90.00000
# Ca1 2b (0,0,1/2)
# Ca2 4e (0,0,z), z= 0.31626
# Mn1 4e (0,0,z), z= 0.10011
# O1 2a (0,0,0)
# O2 4e (0,0,z), z= 0.19809
# O3 8g (0,1/2,z), z= 0.09782

data_isocif-output
_audit_creation_method ISOCIF

_cell_length_a     3.78609
_cell_length_b     3.78609
_cell_length_c     19.36684
_cell_angle_alpha  90.00000
_cell_angle_beta   90.00000
_cell_angle_gamma  90.00000
_cell_volume       277.61296

_symmetry_space_group_name_H-M "I 4/m 2/m 2/m"
_symmetry_Int_Tables_number 139
_space_group.reference_setting '139:-I 4 2'
_space_group.transform_Pp_abc a,b,c;0,0,0

loop_
_space_group_symop_id
_space_group_symop_operation_xyz
1 x,y,z
2 x,-y,-z
3 -x,y,-z
4 -x,-y,z
5 -y,-x,-z
6 -y,x,z
7 y,-x,z
8 y,x,-z
9 -x,-y,-z
10 -x,y,z
11 x,-y,z
12 x,y,-z
13 y,x,z
14 y,-x,-z
15 -y,x,-z
16 -y,-x,z
17 x+1/2,y+1/2,z+1/2
18 x+1/2,-y+1/2,-z+1/2
19 -x+1/2,y+1/2,-z+1/2
20 -x+1/2,-y+1/2,z+1/2
21 -y+1/2,-x+1/2,-z+1/2
22 -y+1/2,x+1/2,z+1/2
23 y+1/2,-x+1/2,z+1/2
24 y+1/2,x+1/2,-z+1/2
25 -x+1/2,-y+1/2,-z+1/2
26 -x+1/2,y+1/2,z+1/2
27 x+1/2,-y+1/2,z+1/2
28 x+1/2,y+1/2,-z+1/2
29 y+1/2,x+1/2,z+1/2
30 y+1/2,-x+1/2,-z+1/2
31 -y+1/2,x+1/2,-z+1/2
32 -y+1/2,-x+1/2,z+1/2

loop_
_atom_type_symbol
Ca    
Mn    
O     

loop_
_atom_site_label
_atom_site_type_symbol
_atom_site_symmetry_multiplicity
_atom_site_Wyckoff_symbol
_atom_site_fract_x
_atom_site_fract_y
_atom_site_fract_z
_atom_site_occupancy
_atom_site_fract_symmform
Ca1 Ca   2 b  0.00000  0.00000  0.50000  1.00000 0,0,0  
Ca2 Ca   4 e  0.00000  0.00000  0.31626  1.00000 0,0,Dz 
Mn1 Mn   4 e  0.00000  0.00000  0.10011  1.00000 0,0,Dz 
O1  O    2 a  0.00000  0.00000  0.00000  1.00000 0,0,0  
O2  O    4 e  0.00000  0.00000  0.19809  1.00000 0,0,Dz 
O3  O    8 g  0.00000  0.50000  0.09782  1.00000 0,0,Dz 

# end of cif
