# CIF file created by ISOCIF, version 3.1.3               
# Space Group:  36 Cmc2_1     C2v-12
# Space-group preferences: orthorhombic axes abc
# Lattice parameters: a= 19.34864, b= 5.24881, c= 5.25316, alpha= 90.00000, beta= 90.00000, gamma= 90.00000
# Mn1 8b (x,y,z), x= 0.40190 , y= 0.24996 , z= 0.25011
# Ca1 4a (0,y,z), y= 0.24733 , z= 0.21803
# Ca2 8b (x,y,z), x=-0.18644 , y= 0.24522 , z= 0.27663
# O1 4a (0,y,z), y=-0.30707 , z= 0.25949
# O2 8b (x,y,z), x= 0.08624 , y= 0.03863 , z= 0.46135
# O3 8b (x,y,z), x=-0.39231 , y= 0.03765 , z=-0.46255
# O4 8b (x,y,z), x=-0.30475 , y= 0.29053 , z= 0.24571

data_isocif-output
_audit_creation_method ISOCIF

_cell_length_a     19.34864
_cell_length_b     5.24881
_cell_length_c     5.25316
_cell_angle_alpha  90.00000
_cell_angle_beta   90.00000
_cell_angle_gamma  90.00000
_cell_volume       533.49648

_symmetry_space_group_name_H-M "C m c 21"
_symmetry_Int_Tables_number 36
_space_group.reference_setting '036:C 2c -2'
_space_group.transform_Pp_abc a,b,c;0,0,0

loop_
_space_group_symop_id
_space_group_symop_operation_xyz
1 x,y,z
2 -x,-y,z+1/2
3 -x,y,z
4 x,-y,z+1/2
5 x+1/2,y+1/2,z
6 -x+1/2,-y+1/2,z+1/2
7 -x+1/2,y+1/2,z
8 x+1/2,-y+1/2,z+1/2

loop_
_atom_type_symbol
Mn    
Ca    
O     

loop_
_atom_site_label
_atom_site_type_symbol
_atom_site_symmetry_multiplicity
_atom_site_Wyckoff_symbol
_atom_site_fract_x
_atom_site_fract_y
_atom_site_fract_z
_atom_site_occupancy
_atom_site_fract_symmform
Mn1 Mn   8 b  0.40190  0.24996  0.25011  1.00000 Dx,Dy,Dz 
Ca1 Ca   4 a  0.00000  0.24733  0.21803  1.00000 0,Dy,Dz  
Ca2 Ca   8 b  0.81356  0.24522  0.27663  1.00000 Dx,Dy,Dz 
O1  O    4 a  0.00000  0.69293  0.25949  1.00000 0,Dy,Dz  
O2  O    8 b  0.08624  0.03863  0.46135  1.00000 Dx,Dy,Dz 
O3  O    8 b  0.60769  0.03765  0.53745  1.00000 Dx,Dy,Dz 
O4  O    8 b  0.69525  0.29053  0.24571  1.00000 Dx,Dy,Dz 

# end of cif
