#
# CIF written by cell_write_cif: Keith Refson, Apr 2010
#
data_Geo_X2+
_audit_creation_date '23:55:58 (GMT+0.0) 6th February 2026'
_audit_creation_method 'Generated by CASTEP 26.100'
 
_symmetry_Int_Tables_number          64
_symmetry_space_group_name_Hall    '-C 2ac 2'
_symmetry_space_group_name_H-M     'Cmce'
loop_
_symmetry_equiv_pos_as_xyz
 x,y,z
 -x,-y+1/2,-z+6391/12500
 -x+1/2,-y+1/2,z+1/2
 x+1/2,y,-z+141/12500
 x,-y+1/2,-z+6391/12500
 -x,y,z
 -x+1/2,y,-z+141/12500
 x+1/2,-y+1/2,z+1/2
 x+1/2,y+1/2,z
 -x+1/2,-y,-z+6391/12500
 -x,-y,z+1/2
 x,y+1/2,-z+141/12500
 x+1/2,-y,-z+6391/12500
 -x+1/2,y+1/2,z
 -x,y+1/2,-z+141/12500
 x,-y,z+1/2
 
_cell_length_a           19.975832739091707
_cell_length_b            5.055840661871294
_cell_length_c            5.055840661871306
_cell_angle_alpha        90.000000000000000
_cell_angle_beta         90.000000000000000
_cell_angle_gamma        90.000000000000000
 
loop_
_atom_site_label
_atom_site_type_symbol
_atom_site_fract_x
_atom_site_fract_y
_atom_site_fract_z
_atom_site_U_iso_or_equiv
_atom_site_occupancy
O1      O   0.000000000000000  0.750000000000000  0.255640000000000 0.0100 1.0000
O5      O   0.097814977034401  0.035677349642219  0.469999025724564 0.0100 1.0000
O21     O   0.696943472374414  0.250000000000000  0.255640000000000 0.0100 1.0000
Ca1     Ca  0.000000000000000  0.250000000000000  0.255640000000000 0.0100 1.0000
Ca5     Ca  0.811347678416753  0.250000000000000  0.255640000000000 0.0100 1.0000
Mn1     Mn  0.401419760587699  0.250000000000000  0.255640000000000 0.0100 1.0000
