#
# CIF written by cell_write_cif: Keith Refson, Apr 2010
#
data_Geo_X3-
_audit_creation_date '22:19:40 (GMT+0.0) 6th February 2026'
_audit_creation_method 'Generated by CASTEP 26.100'
 
_symmetry_Int_Tables_number          63
_symmetry_space_group_name_Hall    '-C 2c 2'
_symmetry_space_group_name_H-M     'Cmcm'
loop_
_symmetry_equiv_pos_as_xyz
 x,y,z
 -x,-y,-z+141/12500
 -x,-y,z+1/2
 x,y,-z+6391/12500
 x,-y,-z+141/12500
 -x,y,z
 -x,y,-z+6391/12500
 x,-y,z+1/2
 x+1/2,y+1/2,z
 -x+1/2,-y+1/2,-z+141/12500
 -x+1/2,-y+1/2,z+1/2
 x+1/2,y+1/2,-z+6391/12500
 x+1/2,-y+1/2,-z+141/12500
 -x+1/2,y+1/2,z
 -x+1/2,y+1/2,-z+6391/12500
 x+1/2,-y+1/2,z+1/2
 
_cell_length_a           19.211065405103778
_cell_length_b            5.159362503279961
_cell_length_c            5.159362503278634
_cell_angle_alpha        90.000000000000000
_cell_angle_beta         90.000000000000000
_cell_angle_gamma        90.000000000000000
 
loop_
_atom_site_label
_atom_site_type_symbol
_atom_site_fract_x
_atom_site_fract_y
_atom_site_fract_z
_atom_site_U_iso_or_equiv
_atom_site_occupancy
O1      O  -0.000000000000000  0.693591156306872  0.255640000000000 0.0100 1.0000
O5      O   0.088270359994765 -0.000000000000000  0.505640000000000 0.0100 1.0000
O13     O   0.606566631278293  0.000000000000000  0.505640000000000 0.0100 1.0000
O21     O   0.696997669793734  0.286277364005184  0.255640000000000 0.0100 1.0000
Ca1     Ca -0.000000000000000  0.240580704183606  0.255640000000000 0.0100 1.0000
Ca5     Ca  0.814235044301675  0.236621356450688  0.255640000000000 0.0100 1.0000
Mn1     Mn  0.402025349029643  0.242320205876803  0.255640000000000 0.0100 1.0000
