#
# CIF written by cell_write_cif: Keith Refson, Apr 2010
#
data_Pho_X2+_prim
_audit_creation_date '15:30:54 (GMT+0.0) 9th February 2026'
_audit_creation_method 'Generated by CASTEP 26.100'
 
_symmetry_Int_Tables_number          64
_symmetry_space_group_name_Hall    '-C 2ac 2'
_symmetry_space_group_name_H-M     'Cmce'
loop_
_symmetry_equiv_pos_as_xyz
 x,y,z
 -x,-y,-z
 -x+1/2,-y+1/2,z+1/2
 x+1/2,y+1/2,-z+1/2
 y,x,-z
 -y,-x,z
 -y+1/2,-x+1/2,-z+1/2
 y+1/2,x+1/2,z+1/2
 
_cell_length_a           10.302856623456604
_cell_length_b           10.302856623456604
_cell_length_c            5.055840661900000
_cell_angle_alpha        90.000000000000000
_cell_angle_beta         90.000000000000000
_cell_angle_gamma        28.406350335030456
 
loop_
_atom_site_label
_atom_site_type_symbol
_atom_site_fract_x
_atom_site_fract_y
_atom_site_fract_z
_atom_site_U_iso_or_equiv
_atom_site_occupancy
O1      O   0.000000000000000  0.000000000000000  0.000000000000000 0.0100 1.0000
O3      O  -0.187862372600000  0.383492326700000  0.214359025700000 0.0100 1.0000
O11     O   0.196943472400000  0.196943472400000  0.000000000000000 0.0100 1.0000
Ca1     Ca -0.500000000000000  0.500000000000000  0.000000000000000 0.0100 1.0000
Ca3     Ca  0.311347678400000  0.311347678400000  0.000000000000000 0.0100 1.0000
Mn1     Mn -0.098580239400000  0.901419760600000  0.000000000000000 0.0100 1.0000
