#
# CIF written by cell_write_cif: Keith Refson, Apr 2010
#
data_Pho_X3-_prim
_audit_creation_date '15:26:18 (GMT+0.0) 9th February 2026'
_audit_creation_method 'Generated by CASTEP 26.100'
 
_symmetry_Int_Tables_number          63
_symmetry_space_group_name_Hall    '-C 2c 2'
_symmetry_space_group_name_H-M     'Cmcm'
loop_
_symmetry_equiv_pos_as_xyz
 x,y,z
 -x,-y,-z
 -x,-y,z+1/2
 x,y,-z+1/2
 y,x,-z
 -y,-x,z
 -y,-x,-z+1/2
 y,x,z+1/2
 
_cell_length_a            9.945904376203030
_cell_length_b            9.945904376203030
_cell_length_c            5.159362503299999
_cell_angle_alpha        90.000000000000000
_cell_angle_beta         90.000000000000000
_cell_angle_gamma        30.065510490788185
 
loop_
_atom_site_label
_atom_site_type_symbol
_atom_site_fract_x
_atom_site_fract_y
_atom_site_fract_z
_atom_site_U_iso_or_equiv
_atom_site_occupancy
O1      O  -0.693591156300000  0.693591156300000  0.250000000000000 0.0100 1.0000
O3      O   0.088270360000000  0.088270360000000  0.500000000000000 0.0100 1.0000
O7      O  -0.393433368700000  0.606566631300000  0.500000000000000 0.0100 1.0000
O11     O  -0.589279694200000  0.983275033800000  0.250000000000000 0.0100 1.0000
Ca1     Ca -0.240580704200000  0.240580704200000  0.250000000000000 0.0100 1.0000
Ca3     Ca -0.422386312100000  1.050856400800000  0.250000000000000 0.0100 1.0000
Mn1     Mn  0.159705143200000  0.644345554900000  0.250000000000000 0.0100 1.0000
